[TITLE]
Generated by build_inp_from_csv.py

[JUNCTIONS]
;ID              	Elev        	Demand      	Pattern         
 J_SNT1_V2_IN_360	-97.50      	0.0000      	DailyUse        	;
 J_SNT1_BEND_IN_690	-85.80      	0.0000      	DailyUse        	;
 J_SNT1_V3_IN_875	-329.20     	0.0000      	DailyUse        	;
 J_SNT1_V4_IN_2255	-178.80     	0.0000      	DailyUse        	;
 J_SNT2_V10_IN_840	-946.90     	0.0000      	DailyUse        	;
 J_SNT5_BEND_IN_130	-1230.80    	0.0000      	DailyUse        	;
 J_SNT5_BEND_OUT_130	-1230.80    	0.0000      	DailyUse        	;
 J_BP1_DIS       	0.00        	20.0000     	DailyUse        	;
 J_SNT1_160      	0.00        	20.0000     	DailyUse        	;
 J_V1_IN_160     	0.00        	20.0000     	DailyUse        	;
 J_V1_OUT_160    	0.00        	20.0000     	DailyUse        	;
 J_SNT1_360      	0.00        	20.0000     	DailyUse        	;
 J_V2_IN_360     	0.00        	20.0000     	DailyUse        	;
 J_V2_OUT_360    	0.00        	20.0000     	DailyUse        	;
 J_SNT1_445      	0.00        	20.0000     	DailyUse        	;
 J_TEE_SNT1_445  	0.00        	20.0000     	DailyUse        	;
 J_CNT1_Stub     	0.00        	20.0000     	DailyUse        	;
 J_CNT1          	0.00        	20.0000     	DailyUse        	;
 J_TEE_SNT1_525  	0.00        	20.0000     	DailyUse        	;
 J_CNT2_Stub     	0.00        	20.0000     	DailyUse        	;
 J_CNT2          	0.00        	20.0000     	DailyUse        	;
 J_SNT1_525      	0.00        	20.0000     	DailyUse        	;
 J_TEE_SNT1_580  	0.00        	20.0000     	DailyUse        	;
 J_CNT3_Stub     	0.00        	20.0000     	DailyUse        	;
 J_CNT3          	0.00        	20.0000     	DailyUse        	;
 J_SNT1_580      	0.00        	20.0000     	DailyUse        	;
 J_TEE_SNT1_635  	0.00        	20.0000     	DailyUse        	;
 J_TEE_IN_SNT1_635	0.00        	20.0000     	DailyUse        	;
 J_CNT4_Stub     	0.00        	20.0000     	DailyUse        	;
 J_CNT4          	0.00        	20.0000     	DailyUse        	;
 J_SNT1_635      	0.00        	20.0000     	DailyUse        	;
 J_TEE_SNT1_690  	0.00        	20.0000     	DailyUse        	;
 J_SNT1_690      	0.00        	20.0000     	DailyUse        	;
 J_SNT1_BEND_OUT_690	0.00        	20.0000     	DailyUse        	;
 J_SNT1_BEND_OUT 	0.00        	20.0000     	DailyUse        	;
 J_TEE_SNT1_700  	0.00        	20.0000     	DailyUse        	;
 J_SNT1_700      	0.00        	20.0000     	DailyUse        	;
 J_CNT5_Stub     	0.00        	20.0000     	DailyUse        	;
 J_CNT5          	0.00        	20.0000     	DailyUse        	;
 J_TEE_SNT1_740  	0.00        	20.0000     	DailyUse        	;
 J_CNT6_Stub     	0.00        	20.0000     	DailyUse        	;
 J_CNT6          	0.00        	20.0000     	DailyUse        	;
 J_SNT1_740      	0.00        	20.0000     	DailyUse        	;
 J_TEE_SNT1_795  	0.00        	20.0000     	DailyUse        	;
 J_CNT7_Stub     	0.00        	20.0000     	DailyUse        	;
 J_CNT7          	0.00        	20.0000     	DailyUse        	;
 J_SNT1_795      	0.00        	20.0000     	DailyUse        	;
 J_TEE_SNT1_875  	0.00        	20.0000     	DailyUse        	;
 J_V2_IN_875     	0.00        	20.0000     	DailyUse        	;
 J_V3_IN_875     	0.00        	20.0000     	DailyUse        	;
 J_V3_OUT_875    	0.00        	20.0000     	DailyUse        	;
 J_SNT1_920      	0.00        	20.0000     	DailyUse        	;
 J_TEE_SNT1_920  	0.00        	20.0000     	DailyUse        	;
 J_CNT8_Stub     	0.00        	20.0000     	DailyUse        	;
 J_CNT8          	0.00        	20.0000     	DailyUse        	;
 J_SNT1_1000     	0.00        	20.0000     	DailyUse        	;
 J_TEE_SNT1_1000 	0.00        	20.0000     	DailyUse        	;
 J_CNT9_Stub     	0.00        	20.0000     	DailyUse        	;
 J_CNT9          	0.00        	20.0000     	DailyUse        	;
 J_TEE_SNT1_1056 	0.00        	20.0000     	DailyUse        	;
 J_CNT10_Stub    	0.00        	20.0000     	DailyUse        	;
 J_CNT10         	0.00        	20.0000     	DailyUse        	;
 J_SNT1_1056     	0.00        	20.0000     	DailyUse        	;
 J_TEE_SNT1_1076 	0.00        	20.0000     	DailyUse        	;
 J_CNT11_Stub    	0.00        	20.0000     	DailyUse        	;
 J_CNT11         	0.00        	20.0000     	DailyUse        	;
 J_SNT1_1076     	0.00        	20.0000     	DailyUse        	;
 J_TEE_SNT1_1132 	0.00        	20.0000     	DailyUse        	;
 J_CNT12_Stub    	0.00        	20.0000     	DailyUse        	;
 J_CNT12         	0.00        	20.0000     	DailyUse        	;
 J_SNT1_1132     	0.00        	20.0000     	DailyUse        	;
 J_TEE_SNT1_1152 	0.00        	20.0000     	DailyUse        	;
 J_CNT13_Stub    	0.00        	20.0000     	DailyUse        	;
 J_CNT13         	0.00        	20.0000     	DailyUse        	;
 J_SNT1_1152     	0.00        	20.0000     	DailyUse        	;
 J_TEE_SNT1_1208 	0.00        	20.0000     	DailyUse        	;
 J_CNT14_Stub    	0.00        	20.0000     	DailyUse        	;
 J_CNT14         	0.00        	20.0000     	DailyUse        	;
 J_SNT1_1208     	0.00        	20.0000     	DailyUse        	;
 J_TEE_SNT1_1264 	0.00        	20.0000     	DailyUse        	;
 J_CNT15_Stub    	0.00        	20.0000     	DailyUse        	;
 J_CNT15         	0.00        	20.0000     	DailyUse        	;
 J_SNT1_1264     	0.00        	20.0000     	DailyUse        	;
 J_TEE_SNT1_1284 	0.00        	20.0000     	DailyUse        	;
 J_CNT16_Stub    	0.00        	20.0000     	DailyUse        	;
 J_CNT16         	0.00        	20.0000     	DailyUse        	;
 J_SNT1_1284     	0.00        	20.0000     	DailyUse        	;
 J_TEE_SNT1_1340 	0.00        	20.0000     	DailyUse        	;
 J_CNT17_Stub    	0.00        	20.0000     	DailyUse        	;
 J_CNT17         	0.00        	20.0000     	DailyUse        	;
 J_SNT1_1340     	0.00        	20.0000     	DailyUse        	;
 J_TEE_SNT1_1355 	0.00        	20.0000     	DailyUse        	;
 J_CNT18_Stub    	0.00        	20.0000     	DailyUse        	;
 J_CNT18         	0.00        	20.0000     	DailyUse        	;
 J_SNT1_1355     	0.00        	20.0000     	DailyUse        	;
 J_TEE_SNT1_1370 	0.00        	20.0000     	DailyUse        	;
 J_CNT19_Stub    	0.00        	20.0000     	DailyUse        	;
 J_CNT19         	0.00        	20.0000     	DailyUse        	;
 J_SNT1_1385     	0.00        	20.0000     	DailyUse        	;
 J_TEE_SNT1_1400 	0.00        	20.0000     	DailyUse        	;
 J_CNT20_Stub    	0.00        	20.0000     	DailyUse        	;
 J_CNT20         	0.00        	20.0000     	DailyUse        	;
 J_SNT1_1400     	0.00        	20.0000     	DailyUse        	;
 J_TEE_SNT1_1415 	0.00        	20.0000     	DailyUse        	;
 J_CNT21_Stub    	0.00        	20.0000     	DailyUse        	;
 J_CNT21         	0.00        	20.0000     	DailyUse        	;
 J_SNT1_1415     	0.00        	20.0000     	DailyUse        	;
 J_TEE_SNT1_1430 	0.00        	20.0000     	DailyUse        	;
 J_CNT22_Stub    	0.00        	20.0000     	DailyUse        	;
 J_CNT22         	0.00        	20.0000     	DailyUse        	;
 J_TEE_SNT1_1445 	0.00        	20.0000     	DailyUse        	;
 J_SNT1_1445     	0.00        	20.0000     	DailyUse        	;
 J_CNT23_Stub    	0.00        	20.0000     	DailyUse        	;
 J_CNT23         	0.00        	20.0000     	DailyUse        	;
 J_TEE_SNT1_1460 	0.00        	20.0000     	DailyUse        	;
 J_CNT24_Stub    	0.00        	20.0000     	DailyUse        	;
 J_CNT24         	0.00        	20.0000     	DailyUse        	;
 J_SNT1_1460     	0.00        	20.0000     	DailyUse        	;
 J_TEE_SNT1_1475 	0.00        	20.0000     	DailyUse        	;
 J_CNT25_Stub    	0.00        	20.0000     	DailyUse        	;
 J_CNT25         	0.00        	20.0000     	DailyUse        	;
 J_SNT1_1475     	0.00        	20.0000     	DailyUse        	;
 J_TEE_SNT1_1570 	0.00        	20.0000     	DailyUse        	;
 J_CNT26_Stub    	0.00        	20.0000     	DailyUse        	;
 J_CNT26         	0.00        	20.0000     	DailyUse        	;
 J_SNT1_1570     	0.00        	20.0000     	DailyUse        	;
 J_TEE_SNT1_1585 	0.00        	20.0000     	DailyUse        	;
 J_CNT27_Stub    	0.00        	20.0000     	DailyUse        	;
 J_CNT27         	0.00        	20.0000     	DailyUse        	;
 J_TEE_SNT1_1680 	0.00        	20.0000     	DailyUse        	;
 J_CNT28_Stub    	0.00        	20.0000     	DailyUse        	;
 J_CNT28         	0.00        	20.0000     	DailyUse        	;
 J_TEE_SNT1_1695 	0.00        	20.0000     	DailyUse        	;
 J_CNT29_Stub    	0.00        	20.0000     	DailyUse        	;
 J_CNT29         	0.00        	20.0000     	DailyUse        	;
 J_SNT1_1695     	0.00        	20.0000     	DailyUse        	;
 J_TEE_SNT1_1790 	0.00        	20.0000     	DailyUse        	;
 J_CNT30_Stub    	0.00        	20.0000     	DailyUse        	;
 J_CNT30         	0.00        	20.0000     	DailyUse        	;
 J_SNT1_1790     	0.00        	20.0000     	DailyUse        	;
 J_TEE_SNT1_1805 	0.00        	20.0000     	DailyUse        	;
 J_CNT31_Stub    	0.00        	20.0000     	DailyUse        	;
 J_CNT31         	0.00        	20.0000     	DailyUse        	;
 J_SNT1_1805     	0.00        	20.0000     	DailyUse        	;
 J_TEE_SNT1_1900 	0.00        	20.0000     	DailyUse        	;
 J_CNT32_Stub    	0.00        	20.0000     	DailyUse        	;
 J_CNT32         	0.00        	20.0000     	DailyUse        	;
 J_SNT1_1900     	0.00        	20.0000     	DailyUse        	;
 J_TEE_SNT1_1915 	0.00        	20.0000     	DailyUse        	;
 J_CNT33_Stub    	0.00        	20.0000     	DailyUse        	;
 J_CNT33         	0.00        	20.0000     	DailyUse        	;
 J_SNT1_1915     	0.00        	20.0000     	DailyUse        	;
 J_TEE_SNT1_2065 	0.00        	20.0000     	DailyUse        	;
 J_CNT34_Stub    	0.00        	20.0000     	DailyUse        	;
 J_CNT34         	0.00        	20.0000     	DailyUse        	;
 J_SNT1_2065     	0.00        	20.0000     	DailyUse        	;
 J_TEE_SNT1_2080 	0.00        	20.0000     	DailyUse        	;
 J_CNT35_Stub    	0.00        	20.0000     	DailyUse        	;
 J_CNT35         	0.00        	20.0000     	DailyUse        	;
 J_SNT1_2080     	0.00        	20.0000     	DailyUse        	;
 J_TEE_SNT1_2175 	0.00        	20.0000     	DailyUse        	;
 J_CNT36_Stub    	0.00        	20.0000     	DailyUse        	;
 J_CNT36         	0.00        	20.0000     	DailyUse        	;
 J_SNT1_2175     	0.00        	20.0000     	DailyUse        	;
 J_TEE_SNT1_2255 	0.00        	20.0000     	DailyUse        	;
 J_V4_IN_2255    	0.00        	20.0000     	DailyUse        	;
 J_V4_OUT_2255   	0.00        	20.0000     	DailyUse        	;
 J_SNT2_Stub_55  	0.00        	20.0000     	DailyUse        	;
 J_TEE_SNT2_55   	0.00        	20.0000     	DailyUse        	;
 J_SNT1_55       	0.00        	20.0000     	DailyUse        	;
 J_TEE_SNT1_55   	0.00        	20.0000     	DailyUse        	;
 J_CNT37_Stub    	0.00        	20.0000     	DailyUse        	;
 J_CNT37         	0.00        	20.0000     	DailyUse        	;
 J_CNT37_90      	0.00        	20.0000     	DailyUse        	;
 J_V5_IN_55      	0.00        	20.0000     	DailyUse        	;
 J_V5_IN_90      	0.00        	20.0000     	DailyUse        	;
 J_V5_OUT_90     	0.00        	20.0000     	DailyUse        	;
 J_SNT2_55       	0.00        	20.0000     	DailyUse        	;
 J_TEE_SNT2_105  	0.00        	20.0000     	DailyUse        	;
 J_TEE_SNT1_105  	0.00        	20.0000     	DailyUse        	;
 J_CNT38_Stub    	0.00        	20.0000     	DailyUse        	;
 J_CNT38         	0.00        	20.0000     	DailyUse        	;
 J_V6_IN_105     	0.00        	20.0000     	DailyUse        	;
 J_V6_OUT_105    	0.00        	20.0000     	DailyUse        	;
 J_TEE_SNT2_185  	0.00        	20.0000     	DailyUse        	;
 J_V7_IN_185     	0.00        	20.0000     	DailyUse        	;
 J_V7_OUT_185    	0.00        	20.0000     	DailyUse        	;
 J_SNT2_210      	0.00        	20.0000     	DailyUse        	;
 J_V8_IN_210     	0.00        	20.0000     	DailyUse        	;
 J_V8_OUT_210    	0.00        	20.0000     	DailyUse        	;
 J_TEE_SNT2_210  	0.00        	20.0000     	DailyUse        	;
 J_TEE_SNT2_211  	0.00        	20.0000     	DailyUse        	;
 J_CNT39_Stub    	0.00        	20.0000     	DailyUse        	;
 J_CNT39         	0.00        	20.0000     	DailyUse        	;
 J_TEE_SNT2_240  	0.00        	20.0000     	DailyUse        	;
 J_CNT40_Stub    	0.00        	20.0000     	DailyUse        	;
 J_CNT40         	0.00        	20.0000     	DailyUse        	;
 J_TEE_CNT40_100 	0.00        	20.0000     	DailyUse        	;
 J_CNT41_Stub    	0.00        	20.0000     	DailyUse        	;
 J_CNT41         	0.00        	20.0000     	DailyUse        	;
 J_V9_IN_185     	0.00        	20.0000     	DailyUse        	;
 J_V9_IN_105     	0.00        	20.0000     	DailyUse        	;
 J_V9_OUT_105    	0.00        	20.0000     	DailyUse        	;
 J_TEE_SNT2_265  	0.00        	20.0000     	DailyUse        	;
 J_SNT2_265      	0.00        	20.0000     	DailyUse        	;
 J_CNT42_Stub    	0.00        	20.0000     	DailyUse        	;
 J_CNT42         	0.00        	20.0000     	DailyUse        	;
 J_TEE_SNT2_300  	0.00        	20.0000     	DailyUse        	;
 J_SNT2_300      	0.00        	20.0000     	DailyUse        	;
 J_CNT43_Stub    	0.00        	20.0000     	DailyUse        	;
 J_CNT43         	0.00        	20.0000     	DailyUse        	;
 J_TEE_SNT2_365  	0.00        	20.0000     	DailyUse        	;
 J_SNT2_365      	0.00        	20.0000     	DailyUse        	;
 J_CNT44_Stub    	0.00        	20.0000     	DailyUse        	;
 J_CNT44         	0.00        	20.0000     	DailyUse        	;
 J_TEE_SNT2_390  	0.00        	20.0000     	DailyUse        	;
 J_SNT2_390      	0.00        	20.0000     	DailyUse        	;
 J_CNT45_Stub    	0.00        	20.0000     	DailyUse        	;
 J_CNT45         	0.00        	20.0000     	DailyUse        	;
 J_TEE_SNT2_415  	0.00        	20.0000     	DailyUse        	;
 J_SNT2_415      	0.00        	20.0000     	DailyUse        	;
 J_CNT46_Stub    	0.00        	20.0000     	DailyUse        	;
 J_CNT46         	0.00        	20.0000     	DailyUse        	;
 J_TEE_SNT2__415 	0.00        	20.0000     	DailyUse        	;
 J_TEE_SNT2_440  	0.00        	20.0000     	DailyUse        	;
 J_CNT47_Stub    	0.00        	20.0000     	DailyUse        	;
 J_CNT47         	0.00        	20.0000     	DailyUse        	;
 J_TEE_SNT2_505  	0.00        	20.0000     	DailyUse        	;
 J_SNT2_505      	0.00        	20.0000     	DailyUse        	;
 J_CNT48_Stub    	0.00        	20.0000     	DailyUse        	;
 J_CNT48         	0.00        	20.0000     	DailyUse        	;
 J_TEE_SNT2_535  	0.00        	20.0000     	DailyUse        	;
 J_SNT2_535      	0.00        	20.0000     	DailyUse        	;
 J_CNT49_Stub    	0.00        	20.0000     	DailyUse        	;
 J_CNT49         	0.00        	20.0000     	DailyUse        	;
 J_TEE_SNT2_580  	0.00        	20.0000     	DailyUse        	;
 J_SNT2_580      	0.00        	20.0000     	DailyUse        	;
 J_CNT50_Stub    	0.00        	20.0000     	DailyUse        	;
 J_CNT50         	0.00        	20.0000     	DailyUse        	;
 J_TEE_SNT2_625  	0.00        	20.0000     	DailyUse        	;
 J_SNT2_625      	0.00        	20.0000     	DailyUse        	;
 J_CNT51_Stub    	0.00        	20.0000     	DailyUse        	;
 J_CNT51         	0.00        	20.0000     	DailyUse        	;
 J_TEE_SNT2_670  	0.00        	20.0000     	DailyUse        	;
 J_SNT2_670      	0.00        	20.0000     	DailyUse        	;
 J_CNT52_Stub    	0.00        	20.0000     	DailyUse        	;
 J_CNT52         	0.00        	20.0000     	DailyUse        	;
 J_TEE_SNT2_715  	0.00        	20.0000     	DailyUse        	;
 J_SNT2_715      	0.00        	20.0000     	DailyUse        	;
 J_CNT53_Stub    	0.00        	20.0000     	DailyUse        	;
 J_CNT53         	0.00        	20.0000     	DailyUse        	;
 J_V10_IN_840    	0.00        	20.0000     	DailyUse        	;
 J_V10_OUT_840   	0.00        	20.0000     	DailyUse        	;
 J_TEE_SNT2_845  	0.00        	20.0000     	DailyUse        	;
 J_SNT2_845      	0.00        	20.0000     	DailyUse        	;
 J_TEE_SNT3_845_Stub	0.00        	20.0000     	DailyUse        	;
 J_SNT3_Stub_75  	0.00        	20.0000     	DailyUse        	;
 J_SNT3_75       	0.00        	20.0000     	DailyUse        	;
 J_TEE_SNT3_75   	0.00        	20.0000     	DailyUse        	;
 J_CNT54_Stub    	0.00        	20.0000     	DailyUse        	;
 J_CNT54         	0.00        	20.0000     	DailyUse        	;
 J_TEE_SNT3_130  	0.00        	20.0000     	DailyUse        	;
 J_SNT3_130      	0.00        	20.0000     	DailyUse        	;
 J_CNT55_Stub    	0.00        	20.0000     	DailyUse        	;
 J_CNT55         	0.00        	20.0000     	DailyUse        	;
 J_TEE_SNT3_185  	0.00        	20.0000     	DailyUse        	;
 J_SNT3_185      	0.00        	20.0000     	DailyUse        	;
 J_CNT56_Stub    	0.00        	20.0000     	DailyUse        	;
 J_CNT56         	0.00        	20.0000     	DailyUse        	;
 J_TEE_SNT3_240  	0.00        	20.0000     	DailyUse        	;
 J_SNT3_240      	0.00        	20.0000     	DailyUse        	;
 J_CNT57_Stub    	0.00        	20.0000     	DailyUse        	;
 J_CNT57         	0.00        	20.0000     	DailyUse        	;
 J_TEE_SNT3_295  	0.00        	20.0000     	DailyUse        	;
 J_SNT3_295      	0.00        	20.0000     	DailyUse        	;
 J_CNT58_Stub    	0.00        	20.0000     	DailyUse        	;
 J_CNT58         	0.00        	20.0000     	DailyUse        	;
 J_TEE_SNT2_855  	0.00        	20.0000     	DailyUse        	;
 J_SNT2_855      	0.00        	20.0000     	DailyUse        	;
 J_CNT59_Stub    	0.00        	20.0000     	DailyUse        	;
 J_CNT59         	0.00        	20.0000     	DailyUse        	;
 J_TEE_SNT2_875  	0.00        	20.0000     	DailyUse        	;
 J_CNT60_Stub    	0.00        	20.0000     	DailyUse        	;
 J_CNT60         	0.00        	20.0000     	DailyUse        	;
 J_SNT2_875      	0.00        	20.0000     	DailyUse        	;
 J_SNT2_V11_IN_1050	0.00        	20.0000     	DailyUse        	;
 J_SNT2_1050_Stub	0.00        	20.0000     	DailyUse        	;
 J_V11_IN_1050   	0.00        	20.0000     	DailyUse        	;
 J_V11_OUT_1050  	0.00        	20.0000     	DailyUse        	;
 J_V10_OUT_1050  	0.00        	20.0000     	DailyUse        	;
 J_TEE_SNT2_1055 	0.00        	20.0000     	DailyUse        	;
 J_SNT2_1055     	0.00        	20.0000     	DailyUse        	;
 J_TEE_SNT4_Stub 	0.00        	20.0000     	DailyUse        	;
 J_SNT4_Stub_20  	0.00        	20.0000     	DailyUse        	;
 J_SNT4_20       	0.00        	20.0000     	DailyUse        	;
 J_TEE_SNT4_20   	0.00        	20.0000     	DailyUse        	;
 J_CNT61_Stub    	0.00        	20.0000     	DailyUse        	;
 J_TEE_SNT4_70   	0.00        	20.0000     	DailyUse        	;
 J_CNT62_Stub    	0.00        	20.0000     	DailyUse        	;
 J_CNT62         	0.00        	20.0000     	DailyUse        	;
 J_SNT4_70       	0.00        	20.0000     	DailyUse        	;
 J_TEE_SNT4_120  	0.00        	20.0000     	DailyUse        	;
 J_CNT63_Stub    	0.00        	20.0000     	DailyUse        	;
 J_CNT63         	0.00        	20.0000     	DailyUse        	;
 J_SNT4_120      	0.00        	20.0000     	DailyUse        	;
 J_TEE_SNT4_170  	0.00        	20.0000     	DailyUse        	;
 J_CNT64_Stub    	0.00        	20.0000     	DailyUse        	;
 J_CNT64         	0.00        	20.0000     	DailyUse        	;
 J_SNT2_V12_IN_1170	0.00        	20.0000     	DailyUse        	;
 J_V12_IN_1170_Stub	0.00        	20.0000     	DailyUse        	;
 J_V12_IN_1170   	0.00        	20.0000     	DailyUse        	;
 J_V12_OUT_1170  	0.00        	20.0000     	DailyUse        	;
 J_SNT2_1175     	0.00        	20.0000     	DailyUse        	;
 J_TEE_SNT5_1175_Stub	0.00        	20.0000     	DailyUse        	;
 J_SNT5_Stub_125 	0.00        	20.0000     	DailyUse        	;
 J_SNT5_Stub     	0.00        	20.0000     	DailyUse        	;
 J_SNT5_125      	0.00        	20.0000     	DailyUse        	;
 J_TEE_SNT5_125  	0.00        	20.0000     	DailyUse        	;
 J_CNT65_Stub    	0.00        	20.0000     	DailyUse        	;
 J_CNT65         	0.00        	20.0000     	DailyUse        	;
 J_SNT5_130      	0.00        	20.0000     	DailyUse        	;
 J_TEE_SNT5_145  	0.00        	20.0000     	DailyUse        	;
 J_SNT5_145      	0.00        	20.0000     	DailyUse        	;
 J_CNT66_Stub    	0.00        	20.0000     	DailyUse        	;
 J_CNT66         	0.00        	20.0000     	DailyUse        	;
 J_TEE_SNT5_165  	0.00        	20.0000     	DailyUse        	;
 J_CNT67_Stub    	0.00        	20.0000     	DailyUse        	;
 J_CNT67         	0.00        	20.0000     	DailyUse        	;
 J_SNT5_165      	0.00        	20.0000     	DailyUse        	;
 J_TEE_SNT5_190  	0.00        	20.0000     	DailyUse        	;
 J_CNT68_Stub    	0.00        	20.0000     	DailyUse        	;
 J_CNT68         	0.00        	20.0000     	DailyUse        	;
 J_SNT5_190      	0.00        	20.0000     	DailyUse        	;
 J_TEE_SNT5_260  	0.00        	20.0000     	DailyUse        	;
 J_TEE_OUT_      	0.00        	20.0000     	DailyUse        	;
 J_CNT69_Stub    	0.00        	20.0000     	DailyUse        	;
 J_CNT69         	0.00        	20.0000     	DailyUse        	;
 J_SNT5_260      	0.00        	20.0000     	DailyUse        	;
 J_TEE_SNT5_310  	0.00        	20.0000     	DailyUse        	;
 J_CNT70_Stub    	0.00        	20.0000     	DailyUse        	;
 J_CNT70         	0.00        	20.0000     	DailyUse        	;
 J_SNT5_310      	0.00        	20.0000     	DailyUse        	;
 J_TEE_SNT5_325  	0.00        	20.0000     	DailyUse        	;
 J_CNT71_Stub    	0.00        	20.0000     	DailyUse        	;
 J_CNT71         	0.00        	20.0000     	DailyUse        	;
 J_SNT5_325      	0.00        	20.0000     	DailyUse        	;
 J_TEE_SNT5_400  	0.00        	20.0000     	DailyUse        	;
 J_CNT72_Stub    	0.00        	20.0000     	DailyUse        	;
 J_CNT72         	0.00        	20.0000     	DailyUse        	;
 J_SNT5_400      	0.00        	20.0000     	DailyUse        	;
 J_TEE_SNT5_415  	0.00        	20.0000     	DailyUse        	;
 J_CNT73_Stub    	0.00        	20.0000     	DailyUse        	;
 J_CNT73         	0.00        	20.0000     	DailyUse        	;
 J_SNT5_415      	0.00        	20.0000     	DailyUse        	;
 J_TEE_SNT5_430  	0.00        	20.0000     	DailyUse        	;
 J_TEE_IN_430    	0.00        	20.0000     	DailyUse        	;
 J_CNT74_Stub    	0.00        	20.0000     	DailyUse        	;
 J_CNT74         	0.00        	20.0000     	DailyUse        	;
 J_SNT5_430      	0.00        	20.0000     	DailyUse        	;
 J_TEE_SNT5_495  	0.00        	20.0000     	DailyUse        	;
 J_CNT75_Stub    	0.00        	20.0000     	DailyUse        	;
 J_CNT75         	0.00        	20.0000     	DailyUse        	;
 J_SNT5_495      	0.00        	20.0000     	DailyUse        	;
 J_TEE_SNT5_530  	0.00        	20.0000     	DailyUse        	;
 J_CNT76_Stub    	0.00        	20.0000     	DailyUse        	;
 J_CNT76         	0.00        	20.0000     	DailyUse        	;
 J_SNT5_530      	0.00        	20.0000     	DailyUse        	;
 J_TEE_SNT5_565  	0.00        	20.0000     	DailyUse        	;
 J_CNT77_Stub    	0.00        	20.0000     	DailyUse        	;
 J_CNT77         	0.00        	20.0000     	DailyUse        	;
 J_SNT5_565      	0.00        	20.0000     	DailyUse        	;
 J_TEE_SNT5_620  	0.00        	20.0000     	DailyUse        	;
 J_CNT78_Stub    	0.00        	20.0000     	DailyUse        	;
 J_CNT78         	0.00        	20.0000     	DailyUse        	;
 J_SNT5_620      	0.00        	20.0000     	DailyUse        	;
 J_TEE_SNT5_695  	0.00        	20.0000     	DailyUse        	;
 J_TEE_IN__695   	0.00        	20.0000     	DailyUse        	;
 J_CNT79_Stub    	0.00        	20.0000     	DailyUse        	;
 J_CNT80         	0.00        	20.0000     	DailyUse        	;
 J_SNT5_695      	0.00        	20.0000     	DailyUse        	;
 J_TEE_SNT5_770  	0.00        	20.0000     	DailyUse        	;
 J_CNT80_Stub    	0.00        	20.0000     	DailyUse        	;
 J_SNT5_770      	0.00        	20.0000     	DailyUse        	;
 J_TEE_SNT5_800  	0.00        	20.0000     	DailyUse        	;
 J_CNT81_Stub    	0.00        	20.0000     	DailyUse        	;
 J_CNT81         	0.00        	20.0000     	DailyUse        	;
 J_SNT5_1175     	0.00        	20.0000     	DailyUse        	;
 J_TEE_SNT2_1190 	0.00        	20.0000     	DailyUse        	;
 J_CNT82_Stub    	0.00        	20.0000     	DailyUse        	;
 J_CNT82         	0.00        	20.0000     	DailyUse        	;
 J_SNT2_1190     	0.00        	20.0000     	DailyUse        	;
 J_TEE_SNT2_1285 	0.00        	20.0000     	DailyUse        	;
 J_TEE_SNT6_Stub 	0.00        	20.0000     	DailyUse        	;
 J_SNT6          	0.00        	20.0000     	DailyUse        	;
 J_SNT6_80       	0.00        	20.0000     	DailyUse        	;
 J_V13_IN_Stub_80	0.00        	20.0000     	DailyUse        	;
 J_V13_IN_80     	0.00        	20.0000     	DailyUse        	;
 J_V13_OUT_Stub  	0.00        	20.0000     	DailyUse        	;
 J_SNT2_1285     	0.00        	20.0000     	DailyUse        	;
 J_TEE_SNT2_1385 	0.00        	20.0000     	DailyUse        	;
 J_TEE_SNT7_Stub 	0.00        	20.0000     	DailyUse        	;
 J_TEE_OUT_1365  	0.00        	20.0000     	DailyUse        	;
 J_SNT7_190      	0.00        	20.0000     	DailyUse        	;
 J_V14_IN_190    	0.00        	20.0000     	DailyUse        	;
 J_V14_IN        	0.00        	20.0000     	DailyUse        	;
 J_V14_OUT       	0.00        	20.0000     	DailyUse        	;
 J_SNT2_1385     	0.00        	20.0000     	DailyUse        	;
 J_SNT2_V15_IN_1490	0.00        	20.0000     	DailyUse        	;
 J_SNT2_1490_Stub	0.00        	20.0000     	DailyUse        	;
 J_V15_IN        	0.00        	20.0000     	DailyUse        	;
 J_V15_OUT       	0.00        	20.0000     	DailyUse        	;
 J_TEE_IN_SNT1_525	0.00        	20.0000     	DailyUse        	;
 J_TEE_OUT_CNT2_Stub_525	0.00        	20.0000     	DailyUse        	;
 J_TEE_OUT_CNT2_Stub	0.00        	20.0000     	DailyUse        	;
 J_TEE_OUT_525   	0.00        	20.0000     	DailyUse        	;
 J_TEE_IN_SNT1_580	0.00        	20.0000     	DailyUse        	;
[RESERVOIRS]
;ID              	Head        	Pattern         
 RES1            	100.00      	                	;

[TANKS]
;ID              	Elevation   	InitLevel   	MinLevel    	MaxLevel    	Diameter    	MinVol      	VolCurve        	Overflow
 J_T1_SUC        	-130.00     	6.00        	3.20        	9.08        	10.00       	0           	                	;
 T1              	0.00        	10.00       	0.00        	20.00       	10.00       	0           	                	;
 M1              	0.00        	10.00       	0.00        	20.00       	10.00       	0           	                	;
 J_BP1_SUC       	0.00        	10.00       	0.00        	20.00       	10.00       	0           	                	;

[PIPES]
;ID              	Node1           	Node2           	Length      	Diameter    	Roughness   	MinorLoss   	Status
 J_RES1_T1       	RES1            	T1              	1.00        	2.469       	130.00      	0.00        	Open  	;
 J_T1_M1         	T1              	M1              	1.00        	2.469       	130.00      	0.00        	Open  	;
 J_T1_SUC        	J_T1_SUC        	J_BP1_SUC       	1.00        	2.469       	130.00      	0.00        	Open  	;
 J_BP1           	J_BP1_SUC       	J_BP1_DIS       	1.00        	2.469       	130.00      	0.00        	Open  	;
 J_BP1_DIS_M1    	J_BP1_DIS       	M1              	1.00        	2.469       	130.00      	0.00        	Open  	;
 J_M1_SNT1_160   	M1              	J_SNT1_160      	160.00      	2.469       	130.00      	0.00        	Open  	;
 J_SNT1_V1_IN_160	J_SNT1_160      	J_V1_IN_160     	1.00        	2.469       	130.00      	0.00        	Open  	;
 J_SNT1_V1_OUT_160_360	J_V1_OUT_160    	J_SNT1_V2_IN_360	200.00      	2.469       	130.00      	0.00        	Open  	;
 P_SNT1_V2_360   	J_SNT1_V2_IN_360	J_V2_IN_360     	1.00        	2.469       	130.00      	0.00        	Open  	;
 J_SNT1_V2_OUT_360_445	J_V2_OUT_360    	J_SNT1_445      	85.00       	2.469       	130.00      	0.00        	Open  	;
 J_TEE_SNT1_445_RUN_IN	J_SNT1_445      	J_TEE_SNT1_445  	1.00        	2.469       	130.00      	0.00        	Open  	;
 J_TEE_SNT1_445_CNT1_stub	J_TEE_SNT1_445  	J_CNT1_Stub     	1.00        	2.469       	130.00      	0.00        	Open  	;
 J_CNT1_Stub_CNT39_15	J_CNT1_Stub     	J_CNT1          	15.00       	1.029       	130.00      	0.00        	Open  	;
 J_TEE_SNT1_445_525	J_SNT1_445      	J_TEE_SNT1_525  	80.00       	2.469       	130.00      	0.00        	Open  	;
 J_TEE_SNT1_525_CNT2_Stub	J_TEE_SNT1_525  	J_CNT2_Stub     	1.00        	2.469       	130.00      	0.00        	Open  	;
 J_CNT2_Stub_CNT2_40	J_CNT2_Stub     	J_CNT2          	40.00       	1.029       	130.00      	0.00        	Open  	;
 J_TEE_SNT1_525_580	J_SNT1_525      	J_TEE_SNT1_580  	55.00       	2.469       	130.00      	0.00        	Open  	;
 J_TEE_SNT1_580_CNT3_Stub	J_TEE_SNT1_580  	J_CNT3_Stub     	1.00        	2.469       	130.00      	0.00        	Open  	;
 J_CNT3_Stub_CNT3_40	J_CNT3_Stub     	J_CNT3          	40.00       	1.029       	130.00      	0.00        	Open  	;
 J_TEE_SNT1_580_635	J_SNT1_580      	J_TEE_SNT1_635  	55.00       	2.469       	130.00      	0.00        	Open  	;
 J_TEE_SNT1_635_RUN_IN	J_TEE_SNT1_635  	J_TEE_IN_SNT1_635	1.00        	2.469       	130.00      	0.00        	Open  	;
 J_TEE_SNT1_635_CNT4_Stub	J_TEE_SNT1_635  	J_CNT4_Stub     	1.00        	2.469       	130.00      	0.00        	Open  	;
 J_CNT4_Stub_CNT4_40	J_CNT4_Stub     	J_CNT4          	40.00       	1.029       	130.00      	0.00        	Open  	;
 J_TEE_SNT1_635_690	J_SNT1_635      	J_TEE_SNT1_690  	55.00       	2.469       	130.00      	0.00        	Open  	;