[TITLE]
; Baseline 80-CN network generated from CSVs
; UNITS: GPM; Headloss: D-W (roughness = absolute roughness in millifeet).

[JUNCTIONS]
;ID	Elevation	Demand	Pattern
 CN1	0.000	0.000
 CN17	0.000	1.000	PAT100
 CN18	0.000	1.000	PAT100
 CN2	0.000	0.000
 CN20	0.000	1.000	PAT100
 CN3	0.000	0.000
 CN35	0.000	1.000	PAT100
 CN36	0.000	1.000	PAT100
 CN38	0.000	1.000	PAT100
 CN4	0.000	0.000
 CN41	0.000	0.000
 CN46	0.000	1.000	PAT100
 CN51	0.000	1.000	PAT100
 CN52	0.000	1.000	PAT100
 CN54	0.000	1.000	PAT100
 CN66	0.000	0.000
 CN70	0.000	1.000	PAT100
 CN87	0.000	1.000	PAT100
 CN88	0.000	0.000
 CN89	0.000	0.000
 CN9	0.000	1.000	PAT100
 CN90	0.000	0.000
 CN91	0.000	0.000
 CN92	0.000	0.000
 SN1	0.000	0.000
 SN10	0.000	0.000
 SN11	0.000	0.000
 SN12	0.000	0.000
 SN14	0.000	0.000
 SN15	0.000	0.000
 SN16	0.000	0.000
 SN17	0.000	0.000
 SN18	0.000	0.000
 SN19	0.000	0.000
 SN2	0.000	0.000
 SN20	0.000	0.000
 SN21	0.000	0.000
 SN22	0.000	0.000
 SN23	0.000	0.000
 SN24	0.000	0.000
 SN25	0.000	0.000
 SN26	0.000	0.000
 SN27	0.000	0.000
 SN28	0.000	0.000
 SN29	0.000	0.000
 SN3	0.000	0.000
 SN30	0.000	0.000
 SN31	0.000	0.000
 SN32	0.000	0.000
 SN33	0.000	0.000
 SN34	0.000	0.000
 SN35	0.000	0.000
 SN36	0.000	0.000
 SN37	0.000	0.000
 SN38	0.000	0.000
 SN39	0.000	0.000
 SN4	0.000	0.000
 SN40	0.000	0.000
 SN42	0.000	0.000
 SN43	0.000	0.000
 SN44	0.000	0.000
 SN45	0.000	0.000
 SN47	0.000	0.000
 SN48	0.000	0.000
 SN49	0.000	0.000
 SN5	0.000	0.000
 SN50	0.000	0.000
 SN51	0.000	0.000
 SN52	0.000	0.000
 SN53	0.000	0.000
 SN54	0.000	0.000
 SN55	0.000	0.000
 SN56	0.000	0.000
 SN57	0.000	0.000
 SN58	0.000	0.000
 SN59	0.000	0.000
 SN6	0.000	0.000
 SN60	0.000	0.000
 SN63	0.000	0.000
 SN64	0.000	0.000
 SN65	0.000	0.000
 SN66	0.000	0.000
 SN67	0.000	0.000
 SN68	0.000	0.000
 SN69	0.000	0.000
 SN7	0.000	0.000
 SN70	0.000	0.000
 SN72	0.000	0.000
 SN73	0.000	0.000
 SN74	0.000	0.000
 SN75	0.000	0.000
 SN76	0.000	0.000
 SN77	0.000	0.000
 SN78	0.000	0.000
 SN79	0.000	0.000
 SN8	0.000	0.000
 SN80	0.000	0.000
 SN81	0.000	0.000
 SN82	0.000	0.000
 SN83	0.000	0.000
 SN84	0.000	0.000
 SN85	0.000	0.000
 SN86	0.000	0.000
 SN87	0.000	0.000
 SN88	0.000	0.000
 SN9	0.000	0.000
 SN91	0.000	0.000
 SN92	0.000	0.000

[RESERVOIRS]
;ID	Head
 R_PLANT	138.60

[PIPES]
;ID	Node1	Node2	Length	Diameter	Roughness	MinorLoss	Status
 P1	PLANT	SN1	20.00	2.500	0.005000	0	Open
 P2	SN1	SN2	40.00	2.500	0.005000	0	Open
 P3	SN2	SN3	40.00	2.500	0.005000	0	Open
 P4	SN3	SN4	200.00	2.500	0.005000	0	Open
 P5	SN4	SN5	85.00	2.500	0.005000	0	Open
 P6	SN5	SN6	55.00	2.500	0.005000	0	Open
 P7	SN6	SN7	55.00	2.500	0.005000	0	Open
 P8	SN7	SN8	55.00	2.500	0.005000	0	Open
 P9	SN8	SN9	15.00	2.500	0.005000	0	Open
 P10	SN9	SN10	40.00	2.500	0.005000	0	Open
 P11	SN10	SN11	50.00	2.500	0.005000	0	Open
 P12	SN11	SN12	80.00	2.500	0.005000	0	Open
 P13	SN12	SN14	56.00	2.500	0.005000	0	Open
 P14	SN14	SN15	20.00	2.500	0.005000	0	Open
 P15	SN15	SN16	56.00	2.500	0.005000	0	Open
 P16	SN16	SN17	20.00	2.500	0.005000	0	Open
 P17	SN17	CN17	150.00	1.500	0.005000	0	Open
 P18	SN17	SN18	56.00	2.500	0.005000	0	Open
 P19	SN18	CN18	150.00	1.500	0.005000	0	Open
 P20	SN18	SN19	56.00	2.500	0.005000	0	Open
 P21	SN19	SN20	20.00	2.500	0.005000	0	Open
 P22	SN20	CN20	150.00	1.500	0.005000	0	Open
 P23	SN20	SN21	56.00	2.500	0.005000	0	Open
 P24	SN21	SN22	15.00	2.500	0.005000	0	Open
 P25	SN22	SN23	15.00	2.500	0.005000	0	Open
 P26	SN23	SN24	15.00	2.500	0.005000	0	Open
 P27	SN24	SN25	15.00	2.500	0.005000	0	Open
 P28	SN25	SN26	15.00	2.500	0.005000	0	Open
 P29	SN26	SN27	95.00	2.500	0.005000	0	Open
 P30	SN27	SN28	15.00	2.500	0.005000	0	Open
 P31	SN28	SN29	15.00	2.500	0.005000	0	Open
 P32	SN29	SN30	95.00	2.500	0.005000	0	Open
 P33	SN30	SN31	15.00	2.500	0.005000	0	Open
 P34	SN31	SN32	95.00	2.500	0.005000	0	Open
 P35	SN32	SN33	15.00	2.500	0.005000	0	Open
 P36	SN33	SN34	95.00	2.500	0.005000	0	Open
 P37	SN34	SN35	15.00	2.500	0.005000	0	Open
 P38	SN35	CN35	150.00	1.500	0.005000	0	Open
 P39	SN35	SN36	95.00	2.500	0.005000	0	Open
 P40	SN36	CN36	150.00	1.500	0.005000	0	Open
 P41	SN36	SN37	15.00	2.500	0.005000	0	Open
 P42	SN37	SN38	150.00	2.500	0.005000	0	Open
 P43	SN38	CN38	95.00	1.500	0.005000	0	Open
 P44	SN38	SN39	15.00	2.500	0.005000	0	Open
 P45	SN39	SN40	95.00	2.500	0.005000	0	Open
 P46	SN40	SN42	55.00	2.500	0.005000	0	Open
 P47	SN42	SN43	25.00	2.500	0.005000	0	Open
 P48	SN43	SN44	30.00	2.500	0.005000	0	Open
 P49	SN44	SN45	20.00	2.500	0.005000	0	Open
 P50	SN45	SN47	25.00	2.500	0.005000	0	Open
 P51	SN47	SN48	15.00	2.500	0.005000	0	Open
 P52	SN48	SN49	50.00	2.500	0.005000	0	Open
 P53	SN49	SN50	15.00	2.500	0.005000	0	Open
 P54	SN50	SN51	50.00	2.500	0.005000	0	Open
 P55	SN51	CN51	150.00	1.500	0.005000	0	Open
 P56	SN51	SN52	15.00	2.500	0.005000	0	Open
 P57	SN52	CN52	150.00	1.500	0.005000	0	Open
 P58	SN52	SN53	50.00	2.500	0.005000	0	Open
 P59	SN53	SN54	20.00	2.500	0.005000	0	Open
 P60	SN54	CN54	150.00	1.500	0.005000	0	Open
 P61	SN54	SN55	35.00	2.500	0.005000	0	Open
 P62	SN55	SN56	35.00	2.500	0.005000	0	Open
 P63	SN56	SN57	35.00	2.500	0.005000	0	Open
 P64	SN57	SN58	35.00	2.500	0.005000	0	Open
 P65	SN58	SN59	135.00	2.500	0.005000	0	Open
 P66	SN59	SN60	50.00	2.500	0.005000	0	Open
 P67	SN60	SN9	55.00	2.500	0.005000	0	Open
 P68	SN9	SN63	55.00	2.500	0.005000	0	Open
 P69	SN63	SN64	55.00	2.500	0.005000	0	Open
 P70	SN64	SN65	55.00	2.500	0.005000	0	Open
 P71	SN65	SN66	160.00	2.500	0.005000	0	Open
 P72	SN66	SN67	20.00	2.500	0.005000	0	Open
 P73	SN67	SN67	50.00	2.500	0.005000	0	Open
 P74	SN67	SN68	50.00	2.500	0.005000	0	Open
 P75	SN68	SN69	50.00	2.500	0.005000	0	Open
 P76	SN69	SN70	90.00	2.500	0.005000	0	Open
 P77	SN70	SN72	25.00	2.500	0.005000	0	Open
 P78	SN72	SN73	70.00	2.500	0.005000	0	Open
 P79	SN73	SN74	50.00	2.500	0.005000	0	Open
 P80	SN74	SN75	15.00	2.500	0.005000	0	Open
 P81	SN75	SN76	75.00	2.500	0.005000	0	Open
 P82	SN76	SN77	15.00	2.500	0.005000	0	Open
 P83	SN77	SN78	15.00	2.500	0.005000	0	Open
 P84	SN78	SN79	65.00	2.500	0.005000	0	Open
 P85	SN79	SN80	35.00	2.500	0.005000	0	Open
 P86	SN80	SN81	35.00	2.500	0.005000	0	Open
 P87	SN81	SN82	55.00	2.500	0.005000	0	Open
 P88	SN82	SN83	75.00	2.500	0.005000	0	Open
 P89	SN83	SN84	75.00	2.500	0.005000	0	Open
 P90	SN84	SN85	30.00	2.500	0.005000	0	Open
 P91	SN85	SN86	50.00	2.500	0.005000	0	Open
 P92	SN86	SN70	15.00	2.500	0.005000	0	Open
 P93	SN70	SN87	100.00	2.500	0.005000	0	Open
 P94	SN87	SN88	80.00	2.500	0.005000	0	Open
 P95	SN88	SN88	80.00	2.500	0.005000	0	Open
 P96	SN88	SN91	100.00	2.500	0.005000	0	Open
 P97	SN91	SN92	190.00	2.500	0.005000	0	Open
 P98	SN9	CN9	15.00	1.500	0.005000	0	Open
 P99	SN45	CN46	185.00	1.500	0.005000	0	Open
 P100	SN71	CN70	15.00	1.500	0.005000	0	Open
 P101	SN87	CN87	95.00	1.500	0.005000	0	Open

[DEMANDS]
;Junction	Demand	Pattern
 CN17	1.000	PAT100
 CN18	1.000	PAT100
 CN20	1.000	PAT100
 CN35	1.000	PAT100
 CN36	1.000	PAT100
 CN38	1.000	PAT100
 CN46	1.000	PAT100
 CN51	1.000	PAT100
 CN52	1.000	PAT100
 CN54	1.000	PAT100
 CN70	1.000	PAT100
 CN87	1.000	PAT100
 CN9	1.000	PAT100

[EMITTERS]

[PUMPS]

[VALVES]

[PATTERNS]
;ID	Multipliers
 PAT125	1.25
 PAT100	1.00
 PAT075	0.75
 PAT050	0.50
 PAT0125	0.125

[CONTROLS]

[OPTIONS]
 UNITS               GPM
 HEADLOSS            D-W
 TRIALS              40
 ACCURACY            0.001
 CHECKFREQ           2
 MAXCHECK            10
 DAMPLIMIT           0.0
 SPECGRAV            1.0
 VISCOSITY           1.0
 UNBALANCED          STOP 10
 REPORT              YES

[ENERGY]

[STATUS]

[REPORT]
 PAGESIZE            0
 STATUS              YES
 NODES               ALL
 LINKS               ALL

[COORDINATES]
 CN1	0.00	0.00
 CN17	0.00	0.00
 CN18	0.00	0.00
 CN2	0.00	0.00
 CN20	0.00	0.00
 CN3	0.00	0.00
 CN35	0.00	0.00
 CN36	0.00	0.00
 CN38	0.00	0.00
 CN4	0.00	0.00
 CN41	0.00	0.00
 CN46	0.00	0.00
 CN51	0.00	0.00
 CN52	0.00	0.00
 CN54	0.00	0.00
 CN66	0.00	0.00
 CN70	0.00	0.00
 CN87	0.00	0.00
 CN88	0.00	0.00
 CN89	0.00	0.00
 CN9	0.00	0.00
 CN90	0.00	0.00
 CN91	0.00	0.00
 CN92	0.00	0.00
 PLANT	0.00	0.00
 SN1	0.00	0.00
 SN10	0.00	0.00
 SN11	0.00	0.00
 SN12	0.00	0.00
 SN14	0.00	0.00
 SN15	0.00	0.00
 SN16	0.00	0.00
 SN17	0.00	0.00
 SN18	0.00	0.00
 SN19	0.00	0.00
 SN2	0.00	0.00
 SN20	0.00	0.00
 SN21	0.00	0.00
 SN22	0.00	0.00
 SN23	0.00	0.00
 SN24	0.00	0.00
 SN25	0.00	0.00
 SN26	0.00	0.00
 SN27	0.00	0.00
 SN28	0.00	0.00
 SN29	0.00	0.00
 SN3	0.00	0.00
 SN30	0.00	0.00
 SN31	0.00	0.00
 SN32	0.00	0.00
 SN33	0.00	0.00
 SN34	0.00	0.00
 SN35	0.00	0.00
 SN36	0.00	0.00
 SN37	0.00	0.00
 SN38	0.00	0.00
 SN39	0.00	0.00
 SN4	0.00	0.00
 SN40	0.00	0.00
 SN42	0.00	0.00
 SN43	0.00	0.00
 SN44	0.00	0.00
 SN45	0.00	0.00
 SN47	0.00	0.00
 SN48	0.00	0.00
 SN49	0.00	0.00
 SN5	0.00	0.00
 SN50	0.00	0.00
 SN51	0.00	0.00
 SN52	0.00	0.00
 SN53	0.00	0.00
 SN54	0.00	0.00
 SN55	0.00	0.00
 SN56	0.00	0.00
 SN57	0.00	0.00
 SN58	0.00	0.00
 SN59	0.00	0.00
 SN6	0.00	0.00
 SN60	0.00	0.00
 SN63	0.00	0.00
 SN64	0.00	0.00
 SN65	0.00	0.00
 SN66	0.00	0.00
 SN67	0.00	0.00
 SN68	0.00	0.00
 SN69	0.00	0.00
 SN7	0.00	0.00
 SN70	0.00	0.00
 SN72	0.00	0.00
 SN73	0.00	0.00
 SN74	0.00	0.00
 SN75	0.00	0.00
 SN76	0.00	0.00
 SN77	0.00	0.00
 SN78	0.00	0.00
 SN79	0.00	0.00
 SN8	0.00	0.00
 SN80	0.00	0.00
 SN81	0.00	0.00
 SN82	0.00	0.00
 SN83	0.00	0.00
 SN84	0.00	0.00
 SN85	0.00	0.00
 SN86	0.00	0.00
 SN87	0.00	0.00
 SN88	0.00	0.00
 SN9	0.00	0.00
 SN91	0.00	0.00
 SN92	0.00	0.00

[TAGS]

[VERTICES]

[LABELS]

[BACKDROP]

[MAP]
